[General]
network=TestNetwork
sim-time-limit = 15s
**.scalar-recording = true
**.vector-recording = true

[Config Basic_Playback_Scenario]
*.playbackHost.packetSource[0].typename = BasicPacketSource

*.playbackHost.hasTcp = true
*.playbackHost.tcpType = "SYNPacketInjector"